[TITLE]
EXNET water distribution network 2004

[JUNCTIONS]
;ID              	Elev        	Demand      	Pattern         
 1107            	57.10000    	125.53450   	                	;
 677             	9.00000     	22.42500    	                	;
 1438            	2.00000     	18.56380    	                	;
 1486            	2.00000     	18.51940    	                	;
 1623            	2.00000     	18.51940    	                	;
 1564            	2.00000     	18.51940    	                	;
 1626            	2.00000     	18.51940    	                	;
 1497            	2.00000     	18.51940    	                	;
 1994            	5.00000     	16.79640    	                	;
 1566            	15.00000    	14.48820    	                	;
 1877            	8.00000     	12.28840    	                	;
 1909            	1.70000     	10.25000    	                	;
 102             	18.00000    	9.54500     	                	;
 1837            	2.00000     	9.11520     	                	;
 1961            	11.00000    	9.07340     	                	;
 2038            	8.00000     	8.94680     	                	;
 409             	3.00000     	8.85000     	                	;
 1880            	3.00000     	8.67350     	                	;
 1239            	32.00000    	8.28190     	                	;
 1314            	3.00000     	8.10160     	                	;
 293             	23.00000    	7.70500     	                	;
 1082            	23.00000    	7.51500     	                	;
 2044            	9.00000     	7.47410     	                	;
 1150            	33.00000    	7.35730     	                	;
 743             	16.00000    	7.21440     	                	;
 1595            	7.00000     	6.92370     	                	;
 2008            	8.00000     	6.60300     	                	;
 1472            	8.00000     	6.49270     	                	;
 1998            	3.00000     	6.48660     	                	;
 638             	37.00000    	6.44790     	                	;
 522             	28.00000    	6.42530     	                	;
 1254            	2.00000     	6.38060     	                	;
 1873            	2.00000     	6.30330     	                	;
 1170            	34.00000    	6.17940     	                	;
 690             	17.00000    	6.17260     	                	;
 486             	14.00000    	6.15410     	                	;
 2031            	11.00000    	6.14090     	                	;
 1594            	6.00000     	6.06100     	                	;
 156             	25.00000    	6.03580     	                	;
 777             	10.00000    	6.02490     	                	;
 665             	9.00000     	5.87760     	                	;
 1310            	7.00000     	5.84380     	                	;
 619             	16.00000    	5.80370     	                	;
 378             	6.00000     	5.79720     	                	;
 1815            	2.00000     	5.74880     	                	;
 100             	2.00000     	5.73360     	                	;
 1450            	13.00000    	5.73110     	                	;
 1370            	9.00000     	5.72460     	                	;
 528             	14.00000    	5.71230     	                	;
 255             	19.00000    	5.68980     	                	;
 1711            	12.00000    	5.63320     	                	;
 1454            	7.00000     	5.60240     	                	;
 1259            	9.00000     	5.58670     	                	;
 1871            	21.00000    	5.44690     	                	;
 1846            	3.00000     	5.43150     	                	;
 2000            	11.00000    	5.37860     	                	;
 1132            	8.00000     	5.37150     	                	;
 1745            	5.00000     	5.35880     	                	;
 1945            	7.00000     	5.35350     	                	;
 1952            	22.00000    	5.25060     	                	;
 2045            	9.00000     	5.24100     	                	;
 2032            	6.00000     	5.21880     	                	;
 1735            	6.00000     	5.16540     	                	;
 1437            	9.00000     	5.16360     	                	;
 466             	25.00000    	5.16000     	                	;
 1142            	30.00000    	5.15950     	                	;
 1389            	9.00000     	5.14040     	                	;
 742             	4.00000     	5.12610     	                	;
 1148            	40.00000    	5.11340     	                	;
 110             	14.00000    	5.07850     	                	;
 1384            	4.00000     	5.06890     	                	;
 936             	29.00000    	5.04860     	                	;
 1582            	10.00000    	5.03710     	                	;
 1515            	6.00000     	4.96510     	                	;
 570             	21.00000    	4.96140     	                	;
 138             	12.00000    	4.95900     	                	;
 1865            	7.00000     	4.94160     	                	;
 437             	14.00000    	4.90330     	                	;
 1853            	6.00000     	4.89200     	                	;
 2033            	6.00000     	4.88670     	                	;
 1465            	8.00000     	4.87710     	                	;
 1869            	6.00000     	4.86980     	                	;
 815             	24.00000    	4.86840     	                	;
 1630            	7.00000     	4.85340     	                	;
 1820            	25.00000    	4.84660     	                	;
 1599            	18.00000    	4.83570     	                	;
 1440            	23.00000    	4.83230     	                	;
 2018            	8.00000     	4.82160     	                	;
 1801            	2.00000     	4.80220     	                	;
 1836            	8.00000     	4.78630     	                	;
 1844            	8.00000     	4.78630     	                	;
 8               	12.00000    	4.78570     	                	;
 651             	11.00000    	4.78080     	                	;
 851             	12.00000    	4.78050     	                	;
 753             	16.00000    	4.75720     	                	;
 2028            	11.00000    	4.74530     	                	;
 1965            	15.00000    	4.73410     	                	;
 1895            	20.00000    	4.71990     	                	;
 731             	35.00000    	4.71150     	                	;
 1531            	15.00000    	4.67750     	                	;
 1224            	32.00000    	4.66770     	                	;
 2030            	10.00000    	4.65460     	                	;
 2004            	9.00000     	4.65090     	                	;
 2009            	6.00000     	4.64680     	                	;
 635             	16.00000    	4.62540     	                	;
 410             	17.00000    	4.60990     	                	;
 1712            	11.00000    	4.58050     	                	;
 1369            	6.00000     	4.55890     	                	;
 1935            	19.00000    	4.46000     	                	;
 652             	17.00000    	4.44530     	                	;
 1398            	19.00000    	4.43970     	                	;
 1423            	13.00000    	4.42810     	                	;
 714             	9.00000     	4.40200     	                	;
 1854            	12.00000    	4.39590     	                	;
 1872            	25.00000    	4.38810     	                	;
 694             	18.00000    	4.37740     	                	;
 710             	8.00000     	4.37060     	                	;
 979             	32.00000    	4.36530     	                	;
 322             	43.00000    	4.36200     	                	;
 1348            	6.00000     	4.34790     	                	;
 959             	27.00000    	4.33570     	                	;
 1262            	9.00000     	4.32450     	                	;
 1825            	7.00000     	4.30860     	                	;
 53              	17.00000    	4.30460     	                	;
 1891            	17.00000    	4.29400     	                	;
 1435            	8.00000     	4.28360     	                	;
 744             	34.00000    	4.26540     	                	;
 1749            	9.00000     	4.24100     	                	;
 678             	16.00000    	4.23060     	                	;
 1418            	7.00000     	4.22410     	                	;
 1316            	25.00000    	4.21960     	                	;
 121             	6.00000     	4.21050     	                	;
 2010            	9.00000     	4.19120     	                	;
 1780            	8.00000     	4.18670     	                	;
 61              	13.00000    	4.17120     	                	;
 756             	16.00000    	4.14630     	                	;
 333             	6.00000     	4.13000     	                	;
 1439            	8.00000     	4.12900     	                	;
 1823            	13.00000    	4.11690     	                	;
 706             	3.00000     	4.11290     	                	;
 11              	24.00000    	4.10860     	                	;
 236             	18.00000    	4.10440     	                	;
 405             	22.00000    	4.07300     	                	;
 1424            	16.00000    	4.06850     	                	;
 365             	7.00000     	4.06710     	                	;
 304             	16.00000    	4.06080     	                	;
 454             	5.00000     	4.04810     	                	;
 1131            	8.00000     	4.04740     	                	;
 2011            	9.00000     	4.04660     	                	;
 87              	14.00000    	4.01320     	                	;
 1403            	2.00000     	4.00040     	                	;
 1876            	14.00000    	3.99360     	                	;
 1284            	2.00000     	3.98850     	                	;
 1011            	27.00000    	3.98650     	                	;
 967             	32.00000    	3.98560     	                	;
 1354            	6.00000     	3.98220     	                	;
 77              	25.00000    	3.97010     	                	;
 923             	32.00000    	3.96020     	                	;
 882             	20.00000    	3.95820     	                	;
 92              	17.00000    	3.94960     	                	;
 1308            	7.00000     	3.94840     	                	;
 609             	19.00000    	3.94720     	                	;
 976             	27.00000    	3.93240     	                	;
 418             	3.00000     	3.93000     	                	;
 880             	16.00000    	3.92420     	                	;
 1636            	13.00000    	3.91890     	                	;
 1920            	7.00000     	3.89990     	                	;
 1458            	9.00000     	3.89970     	                	;
 1252            	6.00000     	3.88520     	                	;
 893             	25.00000    	3.86370     	                	;
 1493            	16.00000    	3.86000     	                	;
 794             	4.00000     	3.84750     	                	;
 1625            	18.00000    	3.84240     	                	;
 1925            	31.00000    	3.83850     	                	;
 579             	21.00000    	3.79530     	                	;
 1491            	13.00000    	3.79260     	                	;
 461             	9.00000     	3.79010     	                	;
 326             	6.00000     	3.78930     	                	;
 553             	26.00000    	3.77950     	                	;
 10              	18.00000    	3.77280     	                	;
 1736            	2.00000     	3.76790     	                	;
 776             	14.00000    	3.75860     	                	;
 1642            	18.00000    	3.74930     	                	;
 1273            	7.00000     	3.73190     	                	;
 1221            	6.00000     	3.72750     	                	;
 282             	9.00000     	3.72460     	                	;
 191             	8.00000     	3.72260     	                	;
 1548            	11.00000    	3.71310     	                	;
 1269            	14.00000    	3.71230     	                	;
 1289            	9.00000     	3.70110     	                	;
 837             	16.00000    	3.69540     	                	;
 1459            	2.00000     	3.69260     	                	;
 65              	17.00000    	3.68790     	                	;
 1731            	7.00000     	3.67320     	                	;
 605             	3.00000     	3.67100     	                	;
 261             	19.00000    	3.66730     	                	;
 1499            	27.00000    	3.65300     	                	;
 539             	6.00000     	3.65290     	                	;
 1950            	36.00000    	3.64950     	                	;
 359             	17.00000    	3.63680     	                	;
 1234            	33.00000    	3.62670     	                	;
 305             	23.00000    	3.62130     	                	;
 737             	16.00000    	3.61270     	                	;
 383             	7.00000     	3.60810     	                	;
 1258            	8.00000     	3.59650     	                	;
 581             	22.00000    	3.57960     	                	;
 302             	8.00000     	3.56160     	                	;
 1817            	15.00000    	3.55710     	                	;
 1078            	28.00000    	3.53470     	                	;
 786             	30.00000    	3.52970     	                	;
 1719            	7.00000     	3.51770     	                	;
 555             	3.00000     	3.51270     	                	;
 1449            	16.00000    	3.50030     	                	;
 1129            	28.00000    	3.49690     	                	;
 1121            	28.00000    	3.49690     	                	;
 928             	37.00000    	3.49220     	                	;
 1349            	2.00000     	3.49110     	                	;
 1329            	27.00000    	3.49050     	                	;
 1177            	33.00000    	3.48630     	                	;
 1960            	14.00000    	3.48580     	                	;
 656             	8.00000     	3.47270     	                	;
 655             	4.00000     	3.46820     	                	;
 1479            	27.00000    	3.46170     	                	;
 292             	23.00000    	3.45800     	                	;
 1401            	7.00000     	3.45760     	                	;
 535             	19.00000    	3.45760     	                	;
 842             	16.00000    	3.45520     	                	;
 1306            	27.00000    	3.44860     	                	;
 1160            	34.00000    	3.43650     	                	;
 623             	14.00000    	3.41330     	                	;
 1357            	6.00000     	3.40560     	                	;
 704             	16.00000    	3.40420     	                	;
 1038            	31.00000    	3.40190     	                	;
 1436            	6.00000     	3.40150     	                	;
 641             	9.00000     	3.38740     	                	;
 1406            	7.00000     	3.38700     	                	;
 1772            	6.00000     	3.38560     	                	;
 1956            	18.00000    	3.37260     	                	;
 1663            	23.00000    	3.36910     	                	;
 336             	22.00000    	3.36550     	                	;
 501             	17.00000    	3.36480     	                	;
 747             	35.00000    	3.36320     	                	;
 617             	9.00000     	3.36250     	                	;
 1514            	12.00000    	3.34960     	                	;
 671             	3.00000     	3.34670     	                	;
 208             	31.00000    	3.34170     	                	;
 1765            	11.00000    	3.34080     	                	;
 1181            	35.00000    	3.33970     	                	;
 187             	8.00000     	3.32370     	                	;
 1615            	13.00000    	3.31260     	                	;
 136             	17.00000    	3.29530     	                	;
 1487            	25.00000    	3.29370     	                	;
 868             	27.00000    	3.28330     	                	;
 406             	23.00000    	3.27530     	                	;
 435             	3.00000     	3.27410     	                	;
 1788            	7.00000     	3.26490     	                	;
 925             	34.00000    	3.26270     	                	;
 1094            	32.00000    	3.24670     	                	;
 1141            	36.00000    	3.24590     	                	;
 1236            	41.00000    	3.24360     	                	;
 972             	32.00000    	3.23550     	                	;
 1412            	5.00000     	3.23420     	                	;
 211             	33.00000    	3.22650     	                	;
 682             	14.00000    	3.22360     	                	;
 1990            	6.00000     	3.21980     	                	;
 1845            	13.00000    	3.21680     	                	;
 1261            	11.00000    	3.21110     	                	;
 78              	24.00000    	3.21040     	                	;
 295             	9.00000     	3.20170     	                	;
 660             	16.00000    	3.19470     	                	;
 1495            	11.00000    	3.18850     	                	;
 1812            	15.00000    	3.17920     	                	;
 1818            	19.00000    	3.17920     	                	;
 1632            	11.00000    	3.17920     	                	;
 1926            	39.00000    	3.17840     	                	;
 578             	13.00000    	3.17250     	                	;
 1260            	11.00000    	3.16770     	                	;
 433             	16.00000    	3.16410     	                	;
 1878            	3.00000     	3.15700     	                	;
 310             	2.00000     	3.14890     	                	;
 548             	6.00000     	3.13960     	                	;
 666             	16.00000    	3.13470     	                	;
 1300            	30.00000    	3.13470     	                	;
 308             	32.00000    	3.13420     	                	;
 1627            	12.00000    	3.13080     	                	;
 857             	27.00000    	3.11940     	                	;
 436             	16.00000    	3.10770     	                	;
 377             	6.00000     	3.10150     	                	;
 1464            	8.00000     	3.09270     	                	;
 334             	6.00000     	3.08620     	                	;
 47              	13.00000    	3.08150     	                	;
 1467            	8.00000     	3.07810     	                	;
 285             	9.00000     	3.06100     	                	;
 1948            	11.00000    	3.05740     	                	;
 445             	7.00000     	3.05420     	                	;
 1957            	14.00000    	3.04840     	                	;
 93              	10.00000    	3.04790     	                	;
 1367            	16.00000    	3.04790     	                	;
 2037            	26.00000    	3.04560     	                	;
 1834            	8.00000     	3.03990     	                	;
 1814            	7.00000     	3.03750     	                	;
 1339            	26.00000    	3.03510     	                	;
 1165            	32.00000    	3.03440     	                	;
 1058            	28.00000    	3.03200     	                	;
 477             	34.00000    	3.02280     	                	;
 1140            	6.00000     	3.00450     	                	;
 1979            	15.00000    	3.00210     	                	;
 1902            	6.00000     	2.99630     	                	;
 128             	18.00000    	2.98130     	                	;
 371             	22.00000    	2.98010     	                	;
 1408            	2.00000     	2.97890     	                	;
 1426            	8.00000     	2.96350     	                	;
 843             	4.00000     	2.96060     	                	;
 631             	28.00000    	2.95680     	                	;
 275             	7.00000     	2.95520     	                	;
 1211            	33.00000    	2.95480     	                	;
 2013            	9.00000     	2.94620     	                	;
 1046            	34.00000    	2.94490     	                	;
 68              	15.00000    	2.93720     	                	;
 381             	17.00000    	2.93100     	                	;
 1263            	19.00000    	2.92340     	                	;
 1109            	34.00000    	2.91670     	                	;
 911             	22.00000    	2.91240     	                	;
 252             	16.00000    	2.90790     	                	;
 1695            	13.00000    	2.90060     	                	;
 1151            	36.00000    	2.89020     	                	;
 1003            	7.00000     	2.88430     	                	;
 1560            	13.00000    	2.87810     	                	;
 490             	3.00000     	2.87720     	                	;
 1402            	7.00000     	2.87080     	                	;
 819             	30.00000    	2.86810     	                	;
 1770            	13.00000    	2.86800     	                	;
 1617            	13.00000    	2.86500     	                	;
 1634            	12.00000    	2.86210     	                	;
 1739            	3.00000     	2.85570     	                	;
 1394            	14.00000    	2.85200     	                	;
 367             	16.00000    	2.85200     	                	;
 901             	22.00000    	2.85160     	                	;
 1605            	10.00000    	2.84570     	                	;
 169             	12.00000    	2.84380     	                	;
 1829            	6.00000     	2.83670     	                	;
 1087            	3.00000     	2.83110     	                	;
 1489            	12.00000    	2.82580     	                	;
 829             	23.00000    	2.82170     	                	;
 625             	10.00000    	2.81650     	                	;
 1337            	7.00000     	2.80200     	                	;
 1973            	4.00000     	2.80120     	                	;
 719             	9.00000     	2.80120     	                	;
 500             	30.00000    	2.79570     	                	;
 1572            	9.00000     	2.79170     	                	;
 1413            	8.00000     	2.79140     	                	;
 708             	16.00000    	2.79010     	                	;
 1547            	16.00000    	2.77560     	                	;
 662             	16.00000    	2.77400     	                	;
 746             	16.00000    	2.77230     	                	;
 951             	27.00000    	2.76660     	                	;
 811             	16.00000    	2.75890     	                	;
 12              	12.00000    	2.75770     	                	;
 1200            	3.00000     	2.75680     	                	;
 1764            	12.00000    	2.75320     	                	;
 1125            	34.00000    	2.75150     	                	;
 1927            	21.00000    	2.74690     	                	;
 1077            	33.00000    	2.74670     	                	;
 1279            	6.00000     	2.74350     	                	;
 1277            	21.00000    	2.74350     	                	;
 1351            	2.00000     	2.73780     	                	;
 1430            	9.00000     	2.73490     	                	;
 278             	27.00000    	2.72660     	                	;
 1164            	6.00000     	2.72560     	                	;
 62              	25.00000    	2.71960     	                	;
 122             	16.00000    	2.71640     	                	;
 1291            	14.00000    	2.70210     	                	;
 258             	19.00000    	2.70180     	                	;
 1342            	13.00000    	2.69500     	                	;
 1692            	19.00000    	2.69010     	                	;
 2021            	6.00000     	2.68040     	                	;
 2020            	26.00000    	2.66830     	                	;
 219             	19.00000    	2.66270     	                	;
 38              	13.00000    	2.66230     	                	;
 1969            	16.00000    	2.65060     	                	;
 767             	34.00000    	2.64890     	                	;
 1307            	28.00000    	2.64560     	                	;
 299             	21.00000    	2.63930     	                	;
 1143            	30.00000    	2.63660     	                	;
 1455            	2.00000     	2.62980     	                	;
 1887            	26.00000    	2.62360     	                	;
 732             	16.00000    	2.62340     	                	;
 1924            	8.00000     	2.62010     	                	;
 759             	32.00000    	2.62010     	                	;
 178             	7.00000     	2.61200     	                	;
 129             	18.00000    	2.60900     	                	;
 1005            	31.00000    	2.60360     	                	;
 1755            	13.00000    	2.60120     	                	;
 645             	7.00000     	2.59830     	                	;
 1374            	16.00000    	2.59820     	                	;
 982             	4.00000     	2.59610     	                	;
 184             	7.00000     	2.59280     	                	;
 1029            	31.00000    	2.59010     	                	;
 1842            	13.00000    	2.58440     	                	;
 1828            	13.00000    	2.58110     	                	;
 1618            	11.00000    	2.57890     	                	;
 196             	13.00000    	2.57410     	                	;
 1222            	8.00000     	2.57400     	                	;
 327             	18.00000    	2.57180     	                	;
 376             	3.00000     	2.56070     	                	;
 1751            	16.00000    	2.55910     	                	;
 640             	27.00000    	2.55710     	                	;
 216             	16.00000    	2.55650     	                	;
 1473            	27.00000    	2.55570     	                	;
 802             	24.00000    	2.55440     	                	;
 1069            	33.00000    	2.54570     	                	;
 1740            	15.00000    	2.54540     	                	;
 595             	28.00000    	2.54120     	                	;
 1708            	11.00000    	2.53910     	                	;
 613             	38.00000    	2.53450     	                	;
 785             	23.00000    	2.53370     	                	;
 1194            	33.00000    	2.52950     	                	;
 155             	33.00000    	2.52420     	                	;
 1699            	11.00000    	2.51690     	                	;
 670             	28.00000    	2.51680     	                	;
 36              	12.00000    	2.51240     	                	;
 1443            	9.00000     	2.50830     	                	;
 1100            	34.00000    	2.49900     	                	;
 1068            	4.00000     	2.49840     	                	;
 1525            	11.00000    	2.49700     	                	;
 845             	6.00000     	2.49000     	                	;
 1496            	16.00000    	2.48540     	                	;
 1364            	14.00000    	2.46750     	                	;
 669             	9.00000     	2.46230     	                	;
 188             	10.00000    	2.45840     	                	;
 915             	27.00000    	2.45630     	                	;
 1072            	34.00000    	2.45620     	                	;
 425             	8.00000     	2.45370     	                	;
 622             	19.00000    	2.45340     	                	;
 457             	8.00000     	2.45080     	                	;
 634             	4.00000     	2.44550     	                	;
 1425            	9.00000     	2.43980     	                	;
 627             	11.00000    	2.43540     	                	;
 150             	18.00000    	2.43150     	                	;
 431             	23.00000    	2.42100     	                	;
 70              	12.00000    	2.41520     	                	;
 35              	7.00000     	2.41230     	                	;
 1800            	13.00000    	2.41220     	                	;
 606             	22.00000    	2.41210     	                	;
 1980            	8.00000     	2.40900     	                	;
 588             	28.00000    	2.40110     	                	;
 1537            	3.00000     	2.39780     	                	;
 1393            	21.00000    	2.39480     	                	;
 1483            	6.00000     	2.38550     	                	;
 1               	9.00000     	2.37960     	                	;
 1641            	12.00000    	2.37740     	                	;
 760             	16.00000    	2.36830     	                	;
 1355            	13.00000    	2.36720     	                	;
 644             	16.00000    	2.36410     	                	;
 1862            	21.00000    	2.35660     	                	;
 683             	12.00000    	2.34990     	                	;
 1910            	32.00000    	2.34600     	                	;
 204             	13.00000    	2.34510     	                	;
 430             	8.00000     	2.34000     	                	;
 267             	16.00000    	2.33890     	                	;
 1311            	14.00000    	2.32370     	                	;
 1122            	32.00000    	2.31840     	                	;
 512             	9.00000     	2.31740     	                	;
 833             	4.00000     	2.31360     	                	;
 681             	16.00000    	2.31170     	                	;
 1385            	8.00000     	2.30510     	                	;
 117             	7.00000     	2.30470     	                	;
 1371            	8.00000     	2.29630     	                	;
 1516            	6.00000     	2.29330     	                	;
 698             	14.00000    	2.28610     	                	;
 434             	3.00000     	2.28200     	                	;
 449             	7.00000     	2.28150     	                	;
 1587            	13.00000    	2.27550     	                	;
 585             	28.00000    	2.27110     	                	;