[TITLE]


[JUNCTIONS]
;ID              	Elev        	Demand      	Pattern         
 2               	0           	2           	                	;
 3               	0           	2           	                	;
 4               	0           	2           	                	;
 5               	0           	2           	                	;
 6               	0           	2           	                	;
 7               	0           	2           	                	;
 8               	0           	2           	                	;
 9               	0           	2           	                	;
 10              	0           	2           	                	;
 11              	0           	2           	                	;
 12              	0           	2           	                	;
 13              	0           	2           	                	;
 14              	0           	2           	                	;
 15              	0           	2           	                	;
 16              	0           	2           	                	;
 17              	0           	2           	                	;
 18              	0           	2           	                	;
 19              	0           	2           	                	;
 20              	0           	2           	                	;
 21              	0           	2           	                	;
 22              	0           	2           	                	;
 23              	0           	2           	                	;
 24              	0           	2           	                	;
 25              	0           	2           	                	;
 26              	0           	2           	                	;
 27              	0           	2           	                	;
 28              	0           	2           	                	;
 29              	0           	2           	                	;
 30              	0           	2           	                	;
 31              	0           	2           	                	;
 32              	0           	2           	                	;
 33              	0           	2           	                	;
 34              	0           	2           	                	;
 36              	0           	2           	                	;
 37              	0           	2           	                	;
 38              	0           	2           	                	;
 39              	0           	2           	                	;
 40              	0           	2           	                	;
 41              	0           	2           	                	;
 42              	0           	2           	                	;
 43              	0           	2           	                	;
 44              	0           	2           	                	;
 45              	0           	2           	                	;
 46              	0           	2           	                	;
 47              	0           	2           	                	;
 48              	0           	2           	                	;
 49              	0           	2           	                	;
 50              	0           	2           	                	;
 51              	0           	2           	                	;
 52              	0           	2           	                	;
 53              	0           	2           	                	;
 54              	0           	2           	                	;
 55              	0           	2           	                	;
 56              	0           	2           	                	;
 57              	0           	2           	                	;
 58              	0           	2           	                	;
 59              	0           	2           	                	;
 60              	0           	2           	                	;
 61              	0           	2           	                	;
 62              	0           	2           	                	;
 63              	0           	2           	                	;
 64              	0           	2           	                	;
 65              	0           	2           	                	;
 66              	0           	2           	                	;
 67              	0           	2           	                	;
 68              	0           	2           	                	;
 69              	0           	2           	                	;
 71              	0           	2           	                	;
 72              	0           	0           	                	;

[RESERVOIRS]
;ID              	Head        	Pattern         
 1               	200         	                	;

[TANKS]
;ID              	Elevation   	InitLevel   	MinLevel    	MaxLevel    	Diameter    	MinVol      	VolCurve

[PIPES]
;ID              	Node1           	Node2           	Length      	Diameter    	Roughness   	MinorLoss   	Status
 1               	2               	3               	400         	200         	100         	0           	Open  	;
 2               	3               	4               	400         	200         	100         	0           	Open  	;
 3               	4               	5               	400         	200         	100         	0           	Open  	;
 4               	5               	6               	400         	200         	100         	0           	Open  	;
 5               	6               	7               	400         	200         	100         	0           	Open  	;
 6               	7               	8               	400         	200         	100         	0           	Open  	;
 7               	8               	9               	400         	200         	100         	0           	Open  	;
 8               	9               	10              	400         	200         	100         	0           	Open  	;
 9               	10              	11              	400         	200         	100         	0           	Open  	;
 10              	11              	12              	400         	200         	100         	0           	Open  	;
 11              	12              	13              	400         	200         	100         	0           	Open  	;
 12              	13              	14              	400         	200         	100         	0           	Open  	;
 13              	14              	15              	400         	200         	100         	0           	Open  	;
 14              	15              	16              	400         	200         	100         	0           	Open  	;
 15              	16              	17              	400         	200         	100         	0           	Open  	;
 16              	17              	18              	400         	200         	100         	0           	Open  	;
 17              	18              	19              	400         	200         	100         	0           	Open  	;
 18              	19              	20              	400         	200         	100         	0           	Open  	;
 19              	20              	21              	400         	200         	100         	0           	Open  	;
 20              	21              	22              	400         	200         	100         	0           	Open  	;
 21              	22              	23              	400         	200         	100         	0           	Open  	;
 22              	23              	24              	400         	200         	100         	0           	Open  	;
 23              	24              	25              	400         	200         	100         	0           	Open  	;
 24              	25              	26              	400         	200         	100         	0           	Open  	;
 25              	26              	27              	400         	200         	100         	0           	Open  	;
 26              	27              	28              	400         	200         	100         	0           	Open  	;
 27              	28              	29              	400         	200         	100         	0           	Open  	;
 28              	29              	30              	400         	200         	100         	0           	Open  	;
 29              	30              	31              	400         	200         	100         	0           	Open  	;
 30              	31              	32              	400         	200         	100         	0           	Open  	;
 31              	32              	33              	400         	200         	100         	0           	Open  	;
 32              	33              	34              	400         	200         	100         	0           	Open  	;
 35              	37              	38              	400         	200         	100         	0           	Open  	;
 36              	38              	39              	400         	200         	100         	0           	Open  	;
 37              	39              	40              	400         	200         	100         	0           	Open  	;
 38              	40              	41              	400         	200         	100         	0           	Open  	;
 39              	41              	42              	400         	200         	100         	0           	Open  	;
 40              	42              	43              	400         	200         	100         	0           	Open  	;
 41              	43              	44              	400         	200         	100         	0           	Open  	;
 42              	44              	45              	400         	200         	100         	0           	Open  	;
 43              	45              	46              	400         	200         	100         	0           	Open  	;
 44              	46              	47              	400         	200         	100         	0           	Open  	;
 45              	47              	48              	400         	200         	100         	0           	Open  	;
 46              	48              	49              	400         	200         	100         	0           	Open  	;
 47              	49              	50              	400         	200         	100         	0           	Open  	;
 48              	50              	51              	400         	200         	100         	0           	Open  	;
 49              	51              	52              	400         	200         	100         	0           	Open  	;
 50              	52              	53              	400         	200         	100         	0           	Open  	;
 51              	53              	54              	400         	200         	100         	0           	Open  	;
 52              	54              	55              	400         	200         	100         	0           	Open  	;
 53              	55              	56              	400         	200         	100         	0           	Open  	;
 54              	56              	57              	400         	200         	100         	0           	Open  	;
 55              	57              	58              	400         	200         	100         	0           	Open  	;
 56              	58              	59              	400         	200         	100         	0           	Open  	;
 57              	59              	60              	400         	200         	100         	0           	Open  	;
 58              	60              	61              	400         	200         	100         	0           	Open  	;
 59              	61              	62              	400         	200         	100         	0           	Open  	;
 60              	62              	63              	400         	200         	100         	0           	Open  	;
 61              	63              	64              	400         	200         	100         	0           	Open  	;
 62              	64              	65              	400         	200         	100         	0           	Open  	;
 63              	65              	66              	400         	200         	100         	0           	Open  	;
 64              	66              	67              	400         	200         	100         	0           	Open  	;
 65              	67              	68              	400         	200         	100         	0           	Open  	;
 66              	68              	69              	400         	200         	100         	0           	Open  	;
 69              	1               	2               	400         	200         	100         	0           	Open  	;
 70              	1               	37              	400         	200         	100         	0           	Open  	;
 71              	2               	37              	400         	200         	100         	0           	Open  	;
 72              	3               	38              	400         	200         	100         	0           	Open  	;
 73              	4               	39              	400         	200         	100         	0           	Open  	;
 74              	5               	40              	400         	200         	100         	0           	Open  	;
 75              	6               	41              	400         	200         	100         	0           	Open  	;
 76              	7               	42              	400         	200         	100         	0           	Open  	;
 77              	8               	43              	400         	200         	100         	0           	Open  	;
 78              	9               	44              	400         	200         	100         	0           	Open  	;
 79              	10              	45              	400         	200         	100         	0           	Open  	;
 80              	11              	46              	400         	200         	100         	0           	Open  	;
 81              	12              	47              	400         	200         	100         	0           	Open  	;
 82              	13              	48              	400         	200         	100         	0           	Open  	;
 83              	14              	49              	400         	200         	100         	0           	Open  	;
 84              	15              	50              	400         	200         	100         	0           	Open  	;
 85              	16              	51              	400         	200         	100         	0           	Open  	;
 86              	17              	52              	400         	200         	100         	0           	Open  	;
 87              	18              	53              	400         	200         	100         	0           	Open  	;
 88              	19              	54              	400         	200         	100         	0           	Open  	;
 89              	20              	55              	400         	200         	100         	0           	Open  	;
 90              	21              	56              	400         	200         	100         	0           	Open  	;
 91              	22              	57              	400         	200         	100         	0           	Open  	;
 92              	23              	58              	400         	200         	100         	0           	Open  	;
 93              	24              	59              	400         	200         	100         	0           	Open  	;
 94              	25              	60              	400         	200         	100         	0           	Open  	;
 95              	26              	61              	400         	200         	100         	0           	Open  	;
 96              	27              	62              	400         	200         	100         	0           	Open  	;
 97              	28              	63              	400         	200         	100         	0           	Open  	;
 98              	29              	64              	400         	200         	100         	0           	Open  	;
 99              	30              	65              	400         	200         	100         	0           	Open  	;
 100             	31              	66              	400         	200         	100         	0           	Open  	;
 101             	32              	67              	400         	200         	100         	0           	Open  	;
 102             	33              	68              	400         	200         	100         	0           	Open  	;
 103             	34              	69              	400         	200         	100         	0           	Open  	;
 105             	36              	71              	400         	200         	100         	0           	Open  	;
 106             	36              	72              	400         	200         	100         	0           	Open  	;
 107             	71              	72              	400         	200         	100         	0           	Open  	;
 113             	34              	36              	400         	200         	100         	0           	Open  	;
 114             	69              	71              	400         	200         	100         	0           	Open  	;

[PUMPS]
;ID              	Node1           	Node2           	Parameters

[VALVES]
;ID              	Node1           	Node2           	Diameter    	Type	Setting     	MinorLoss   

[TAGS]

[DEMANDS]
;Junction        	Demand      	Pattern         	Category

[STATUS]
;ID              	Status/Setting

[PATTERNS]
;ID              	Multipliers

[CURVES]
;ID              	X-Value     	Y-Value

[CONTROLS]


[RULES]


[ENERGY]
 Global Efficiency  	75
 Global Price       	0
 Demand Charge      	0

[EMITTERS]
;Junction        	Coefficient

[QUALITY]
;Node            	InitQual

[SOURCES]
;Node            	Type        	Quality     	Pattern

[REACTIONS]
;Type     	Pipe/Tank       	Coefficient


[REACTIONS]
 Order Bulk            	1
 Order Tank            	1
 Order Wall            	1
 Global Bulk           	0
 Global Wall           	0
 Limiting Potential    	0
 Roughness Correlation 	0

[MIXING]
;Tank            	Model

[TIMES]
 Duration           	0:00 
 Hydraulic Timestep 	1:00 
 Quality Timestep   	0:05 
 Pattern Timestep   	1:00 
 Pattern Start      	0:00 
 Report Timestep    	1:00 
 Report Start       	0:00 
 Start ClockTime    	12 am
 Statistic          	NONE

[REPORT]
 Status             	Full
 Summary            	No
 Page               	0

[OPTIONS]
 Units              	LPS
 Headloss           	H-W
 Specific Gravity   	1
 Viscosity          	1
 Trials             	100
 Accuracy           	0.0001
 CHECKFREQ          	2
 MAXCHECK           	10
 DAMPLIMIT          	0
 Unbalanced         	Stop
 Pattern            	1
 Demand Multiplier  	1.0
 Emitter Exponent   	0.5
 Quality            	None mg/L
 Diffusivity        	1
 Tolerance          	0.01

[COORDINATES]
;Node            	X-Coord         	Y-Coord
 2               	-1404.76        	7174.60         
 3               	-1071.43        	7190.48         
 4               	-769.84         	7190.48         
 5               	-468.25         	7190.48         
 6               	-150.79         	7174.60         
 7               	182.54          	7174.60         
 8               	515.87          	7174.60         
 9               	849.21          	7126.98         
 10              	1230.16         	7111.11         
 11              	1563.49         	7111.11         
 12              	1912.70         	7111.11         
 13              	2261.90         	7095.24         
 14              	2595.24         	7095.24         
 15              	2880.95         	7095.24         
 16              	3214.29         	7095.24         
 17              	3500.00         	7095.24         
 18              	3817.46         	7079.37         
 19              	4166.67         	7063.49         
 20              	4500.00         	7063.49         
 21              	4865.08         	7063.49         
 22              	5261.90         	7031.75         
 23              	5642.86         	7015.87         
 24              	6055.56         	7015.87         
 25              	6484.13         	7015.87         
 26              	6865.08         	7015.87         
 27              	7261.90         	7015.87         
 28              	7626.98         	7015.87         
 29              	7944.44         	7015.87         
 30              	8373.02         	7031.75         
 31              	8769.84         	7015.87         
 32              	9150.79         	6984.13         
 33              	9515.87         	7000.00         
 34              	9833.33         	6952.38         
 36              	10531.75        	6936.51         
 37              	-1420.63        	6428.57         
 38              	-1039.68        	6444.44         
 39              	-769.84         	6412.70         
 40              	-468.25         	6460.32         
 41              	-182.54         	6476.19         
 42              	166.67          	6412.70         
 43              	500.00          	6380.95         
 44              	801.59          	6333.33         
 45              	1150.79         	6317.46         
 46              	1500.00         	6301.59         
 47              	1833.33         	6301.59         
 48              	2182.54         	6301.59         
 49              	2484.13         	6317.46         
 50              	2801.59         	6285.71         
 51              	3134.92         	6285.71         
 52              	3452.38         	6285.71         
 53              	3833.33         	6285.71         
 54              	4150.79         	6285.71         
 55              	4452.38         	6285.71         
 56              	4801.59         	6285.71         
 57              	5230.16         	6285.71         
 58              	5658.73         	6269.84         
 59              	6039.68         	6269.84         
 60              	6404.76         	6253.97         
 61              	6785.71         	6253.97         
 62              	7166.67         	6222.22         
 63              	7547.62         	6238.10         
 64              	7896.83         	6222.22         
 65              	8293.65         	6222.22         
 66              	8722.22         	6238.10         
 67              	9103.17         	6269.84         
 68              	9436.51         	6238.10         
 69              	9769.84         	6253.97         
 71              	10468.25        	6238.10         
 72              	10880.95        	6492.06         
 1               	-1833.33        	6857.14         

[VERTICES]
;Link            	X-Coord         	Y-Coord

[LABELS]
;X-Coord           Y-Coord          Label & Anchor Node

[BACKDROP]
 DIMENSIONS     	-2474.60        	3957.14         	11633.33        	7344.45         
 UNITS          	None
 FILE           	
 OFFSET         	0.00            	0.00            

[END]
