[TITLE]


[JUNCTIONS]
;ID              	Elev        	Demand      	Pattern         
 2               	0           	0           	                	;
 3               	0           	0           	                	;
 4               	0           	0           	                	;
 5               	0           	0           	                	;
 6               	0           	0           	                	;
 7               	0           	0           	                	;
 8               	0           	80          	                	;

[RESERVOIRS]
;ID              	Head        	Pattern         
 1               	40          	                	;

[TANKS]
;ID              	Elevation   	InitLevel   	MinLevel    	MaxLevel    	Diameter    	MinVol      	VolCurve

[PIPES]
;ID              	Node1           	Node2           	Length      	Diameter    	Roughness   	MinorLoss   	Status
 1               	1               	2               	1000        	250         	120         	0           	Open  	;
 2               	2               	3               	1000        	250         	120         	0           	Open  	;
 3               	1               	3               	1000        	250         	120         	0           	Open  	;
 4               	2               	4               	1000        	250         	120         	0           	Open  	;
 5               	3               	5               	1000        	250         	120         	0           	Open  	;
 6               	4               	5               	1000        	250         	120         	0           	Open  	;
 7               	4               	6               	1000        	250         	120         	0           	Open  	;
 8               	5               	7               	1000        	250         	120         	0           	Open  	;
 9               	6               	7               	1000        	250         	120         	0           	Open  	;
 10              	6               	8               	1000        	250         	120         	0           	Open  	;
 11              	7               	8               	1000        	250         	120         	0           	Open  	;

[PUMPS]
;ID              	Node1           	Node2           	Parameters

[VALVES]
;ID              	Node1           	Node2           	Diameter    	Type	Setting     	MinorLoss   

[TAGS]

[DEMANDS]
;Junction        	Demand      	Pattern         	Category

[STATUS]
;ID              	Status/Setting

[PATTERNS]
;ID              	Multipliers

[CURVES]
;ID              	X-Value     	Y-Value

[CONTROLS]

[RULES]

[ENERGY]
 Global Efficiency  	75
 Global Price       	0
 Demand Charge      	0

[EMITTERS]
;Junction        	Coefficient

[QUALITY]
;Node            	InitQual

[SOURCES]
;Node            	Type        	Quality     	Pattern

[REACTIONS]
;Type     	Pipe/Tank       	Coefficient


[REACTIONS]
 Order Bulk            	1
 Order Tank            	1
 Order Wall            	1
 Global Bulk           	0
 Global Wall           	0
 Limiting Potential    	0
 Roughness Correlation 	0

[MIXING]
;Tank            	Model

[TIMES]
 Duration           	0
 Hydraulic Timestep 	1:00
 Quality Timestep   	0:05
 Pattern Timestep   	1:00
 Pattern Start      	0:00
 Report Timestep    	1:00
 Report Start       	0:00
 Start ClockTime    	12 am
 Statistic          	None

[REPORT]
 Status             	Full
 Summary            	No
 Page               	0

[OPTIONS]
 Units              	LPS
 Headloss           	H-W
 Specific Gravity   	1
 Viscosity          	1
 Trials             	40
 Accuracy           	0.00000001
 CHECKFREQ          	2
 MAXCHECK           	10
 DAMPLIMIT          	0
 Unbalanced         	Stop
 Pattern            	1
 Demand Multiplier  	1.0
 Emitter Exponent   	0.5
 Quality            	None mg/L
 Diffusivity        	1
 Tolerance          	0.01

[COORDINATES]
;Node            	X-Coord         	Y-Coord
 2               	2873.30         	7126.70         
 3               	7194.57         	7126.70         
 4               	2873.30         	5429.86         
 5               	7194.57         	5429.86         
 6               	2873.30         	3687.78         
 7               	7194.57         	3687.78         
 8               	5339.37         	2171.95         
 1               	5022.62         	8597.29         

[VERTICES]
;Link            	X-Coord         	Y-Coord

[LABELS]
;X-Coord           Y-Coord          Label & Anchor Node

[BACKDROP]
 DIMENSIONS     	0.00            	0.00            	10000.00        	10000.00        
 UNITS          	None
 FILE           	
 OFFSET         	0.00            	0.00            

[END]
