[TITLE]
JEPPSON EXAMPLE V-13

[JUNCTIONS]
1       200
2       200     100
3       180     100
301     180
4       180     80
5       200     50
501     200
6       140     320

[TANKS]
101     300
102     250

[PIPES]
1       101     1       500     500      .0021
2       1       2       500     300      .0021
3       2       3       600     280     .0021
4       4       3       500     300     .0021
5       1       4       600     280     .0021   10
6       5       2       500     300     .0021
7       501     6       600     280     .0021
8       301     6       500     300     .0021
9       1       6       1200    200     .0021
10      102     5       500     400     .0021

[VALVES]
701     5     501       280     PRV     -50
801     3     301       300     PRV     -55

[OPTIONS]
UNITS  SI
HEADLOSS  D-W

[REPORT]
STATUS FULL

[END]
