[TITLE]


[JUNCTIONS]
;ID              	Elev        	Demand      	Pattern         
 1               	150         	0           	                	;
 2               	150         	30          	                	;
 3               	100         	0           	                	;
 4               	130         	80          	                	;
 5               	130         	50          	                	;
 6               	150         	30          	                	;
 7               	120         	0           	                	;
 8               	120         	0           	                	;
 9               	120         	80          	                	;

[RESERVOIRS]
;ID              	Head        	Pattern         
 10              	158         	                	;
 11              	238         	                	;

[TANKS]
;ID              	Elevation   	InitLevel   	MinLevel    	MaxLevel    	Diameter    	MinVol      	VolCurve

[PIPES]
;ID              	Node1           	Node2           	Length      	Diameter    	Roughness   	MinorLoss   	Status
 1               	1               	2               	300         	250         	130         	0           	Open  	;
 2               	11              	6               	300         	250         	130         	0           	Open  	;
 3               	2               	3               	500         	200         	110         	0           	Open  	;
 4               	6               	5               	500         	200         	110         	0           	Open  	;
 5               	4               	5               	300         	200         	120         	0           	Open  	;
 6               	4               	7               	300         	200         	120         	0           	Open  	;
 7               	8               	9               	300         	200         	120         	0           	Open  	;
 8               	2               	6               	300         	250         	130         	0           	Open  	;
 9               	5               	9               	500         	200         	120         	0           	Open  	;

[PUMPS]
;ID              	Node1           	Node2           	Parameters
 10              	10              	1               	HEAD P10	SPEED 1	;
 11              	3               	4               	HEAD P11	SPEED 1	;

[VALVES]
;ID              	Node1           	Node2           	Diameter    	Type	Setting     	MinorLoss   
 12              	7               	8               	200         	PRV 	140         	0           	;

[TAGS]

[DEMANDS]
;Junction        	Demand      	Pattern         	Category

[STATUS]
;ID              	Status/Setting

[PATTERNS]
;ID              	Multipliers

[CURVES]
;ID              	X-Value     	Y-Value
;PUMP: PUMP: 
 P11             	0           	33.33       
 P11             	100         	23.04       
 P11             	179.97      	0           
;PUMP: PUMP: 
 P10             	0           	26.67       
 P10             	100         	16.25       
 P10             	159.98      	0           

[CONTROLS]


[RULES]


[ENERGY]
 Global Efficiency  	75
 Global Price       	0
 Demand Charge      	0

[EMITTERS]
;Junction        	Coefficient

[QUALITY]
;Node            	InitQual

[SOURCES]
;Node            	Type        	Quality     	Pattern

[REACTIONS]
;Type     	Pipe/Tank       	Coefficient


[REACTIONS]
 Order Bulk            	1
 Order Tank            	1
 Order Wall            	1
 Global Bulk           	0
 Global Wall           	0
 Limiting Potential    	0
 Roughness Correlation 	0

[MIXING]
;Tank            	Model

[TIMES]
 Duration           	0:00 
 Hydraulic Timestep 	1:00 
 Quality Timestep   	0:05 
 Pattern Timestep   	1:00 
 Pattern Start      	0:00 
 Report Timestep    	1:00 
 Report Start       	0:00 
 Start ClockTime    	12 am
 Statistic          	NONE

[REPORT]
 Status             	No
 Summary            	No
 Page               	0

[OPTIONS]
 Units              	LPS
 Headloss           	H-W
 Specific Gravity   	1
 Viscosity          	1
 Trials             	40
 Accuracy           	0.001
 CHECKFREQ          	2
 MAXCHECK           	10
 DAMPLIMIT          	0
 Unbalanced         	Continue 10
 Pattern            	1
 Demand Multiplier  	1.0
 Emitter Exponent   	0.5
 Quality            	None mg/L
 Diffusivity        	1
 Tolerance          	0.01

[COORDINATES]
;Node            	X-Coord         	Y-Coord
 1               	2544.76         	7544.76         
 2               	4207.16         	7544.76         
 3               	6662.40         	7544.76         
 4               	8401.53         	7544.76         
 5               	8401.53         	4526.85         
 6               	4207.16         	4526.85         
 7               	9245.52         	6624.04         
 8               	10038.36        	5703.32         
 9               	10882.35        	4526.85         
 10              	396.42          	7544.76         
 11              	447.57          	4526.85         

[VERTICES]
;Link            	X-Coord         	Y-Coord

[LABELS]
;X-Coord           Y-Coord          Label & Anchor Node

[BACKDROP]
 DIMENSIONS     	0.00            	0.00            	10000.00        	10000.00        
 UNITS          	None
 FILE           	
 OFFSET         	0.00            	0.00            

[END]
