
[TITLE]
 Model exported from AQUIS on 2011-09-09 20:45:25 - C:\Epanet3-CLE\Epanet3-CLE\2PRVs-aquis.inp

[OPTIONS]
; ---------------------------------------------------------------------------------------------------
; Network Properties & Simulation Options
; ---------------------------------------------------------------------------------------------------
  UNITS     LPS
  HEADLOSS  H-W
  PATTERN   Demand_1
  DEMAND MULTIPLIER 1.000000

[JUNCTIONS]
; ---------------------------------------------------------------------------------------------------
; ID          Elevation(m)
; ---------------------------------------------------------------------------------------------------
 VN_4 0.000000 ; Extra node created for valve in pipe 4
 3 0.000000 ; 
 VN_5 0.000000 ; Extra node created for valve in pipe 5
 4 0.000000 ; 
 5 0.000000 ; 
 2 0.000000 ; 

[RESERVOIRS]
; ---------------------------------------------------------------------------------------------------
; ID   Head(m)  Pattern
; ---------------------------------------------------------------------------------------------------
 1 45.720001  ; 

[PIPES]
; ---------------------------------------------------------------------------------------------------
;           Head      Tail  (m)      (mm)   Roughness  (Minor Loss (Check 
; ID        Node      Node Length  Diameter Coefficient Cofficient) Valve)
; ---------------------------------------------------------------------------------------------------
 3 4 5 3.048000 152.399994 200.000000 0.000000 OPEN ; 
 4 2 VN_4 943.540771 152.399994 120.000000 0.000000 OPEN ; 
 5 2 VN_5 1058.141235 152.399994 120.000000 0.000000 OPEN ; 
 1 1 2 304.799988 304.799988 100.000000 0.000000 OPEN ; 
 2 3 5 3.048000 152.399994 200.000000 0.000000 OPEN ; 

[PUMPS]
; ---------------------------------------------------------------------------------------------------
; ID   Node1   Node2  Keyword Value
; ---------------------------------------------------------------------------------------------------

[VALVES]
; ---------------------------------------------------------------------------------------------------
;       Head  Tail   (mm)    
; ID    Node  Node Diameter Type Setting (Losscoeff)
; ---------------------------------------------------------------------------------------------------
 VP_4 VN_4 3 152.399994 GPV Valve_4 0.000000 ; 
 VP_5 VN_5 4 152.399994 GPV Valve_5 0.000000 ; 

[DEMANDS]
; ---------------------------------------------------------------------------------------------------
; ID   Demand Pattern ;Category
; ---------------------------------------------------------------------------------------------------
 3 0.000000 Demand_1 ; 1
 4 0.000000 Demand_1 ; 1
 5 12.617514 Demand_1 ; 1
 2 0.000000 Demand_1 ; 1

[STATUS]
; ---------------------------------------------------------------------------------------------------
; ID   Status
; ---------------------------------------------------------------------------------------------------

[TIMES]
; ---------------------------------------------------------------------------------------------------
;Time  Value
; ---------------------------------------------------------------------------------------------------
DURATION            0.000000 SEC
HYDRAULIC TIMESTEP  3600.000000 SEC
PATTERN TIMESTEP    3600.000000 SEC
PATTERN START       0.000000 SEC
START CLOCKTIME     0.000000 SEC

[PATTERNS]
; ---------------------------------------------------------------------------------------------------
; ID   Factor
; ---------------------------------------------------------------------------------------------------
; Pattern Demand_1 ( Demand )
Demand_1 1.000000
; Pattern Demand_2 ( Demand )
Demand_2 1.000000

[CURVES]
; ---------------------------------------------------------------------------------------------------
; ID   Flow   Headloss
;HEADLOSS: Curve for Valve Valve_4 
Valve_4 0.000000 0.000000
Valve_4 60.000000 60.000000
Valve_4 160.000000 60.000000
; ID   Flow   Headloss
;HEADLOSS: Curve for Valve Valve_5 
Valve_5 0.000000 0.000000
Valve_5 50.000000 50.000000
Valve_5 150.000000 50.000000

[COORDINATES]
; ---------------------------------------------------------------------------------------------------
; ID   X     Y
; ---------------------------------------------------------------------------------------------------
 VN_4 2110.828261 1964.249932
 3 2111.828136 1964.265312
 VN_5 2120.604820 1490.568028
 4 2121.505536 1490.133672
 5 2813.352768 1741.715592
 1 500.743728 1954.590960
 2 1168.398984 1949.753784

[VERTICES]
; ---------------------------------------------------------------------------------------------------
; ID   X     Y
; ---------------------------------------------------------------------------------------------------

[END]
