; [%VERSION] MIKE NET 2002

[JUNCTIONS]
;------------------------------------------------------
;         Elevation  Demand   Pattern
; ID         [ft]     [gpm]
;------------------------------------------------------
          2    72.000   0.000  ;
          3    72.000   0.000  ;
          4    72.000   0.000  ;
          5    72.000   0.000  ;
         14    96.000   0.000  ;
         15    96.000   0.000  ;
         16    96.000   0.000  ;
         17    96.000   0.000  ;
         18    96.000   0.000  ;
         19    96.000   0.000  ;
         20    96.000   0.000  ;
         21    96.000   0.000  ;
         22    96.000   0.000  ;
         23    96.000   0.000  ;
         24   100.000   0.000  ;
         26    96.000   0.000  ;
         27    96.000   0.000  ;
         28    96.000   0.000  ;
         29   100.000   0.000  ;
         30   108.000  27.500  ;
         31    96.000   0.000  ;
         33    96.000   0.000  ;
         34    96.000   0.000  ;
         35    96.000   0.000  ;
         36    96.000   0.000  ;
         37    96.000   0.000  ;
         38    96.000   0.000  ;
         39    96.000   0.000  ;
         40    96.000   0.000  ;
         41     0.000   0.000  ;
         42    50.000   0.000  ;

[RESERVOIRS]
;------------------------------------------------------
;         Head  Pattern
; ID      [ft]
;------------------------------------------------------
 1    82.000 ;
 32   100.000 ;


[PIPES]
;-----------------------------------------------------------------
;                 Head       Tail   Length     Diam   Rough.  Minor  CV 
;        ID       Node       Node      [ft]     [in]   [millift]
;-----------------------------------------------------------------
         14          2         14   232.73     1.00   0.0050   2.83  ;
         15          3         15    24.00     1.00   0.0050   5.65  ;
         16          4         16    24.00     1.00   0.0050   5.65  ;
         17          5         17    24.00     1.00   0.0050   5.65  ;
         18         14         37     6.79     4.00   0.0050   0.00  ;
         19         15         35     7.33     4.00   0.0050   0.00  ;
         20         16         33    17.79     4.00   0.0050   0.00  ;
         21         17         39     6.63     4.00   0.0050   0.00  ;
         22         18         19   210.00     4.00   0.0050   0.00  ;
         23         19         20    65.00     4.00   0.0050   0.00  ;
         24         20         21   110.00     4.00   0.0050   0.00  ;
         25         21         22   575.00     4.00   0.0050   0.00  ;
         26         23         22   165.00     4.00   0.0050   0.00  ;
         27         31         23   480.00     4.00   0.0050   0.00  ;
         33         22         26   180.00     4.00   0.0050   0.00  ;
         34         26         27   320.00     4.00   0.0050   2.70  ;
         35         27         28    35.00     4.00   0.0050   0.00  ;
         36         28         29   575.00     4.00   0.0050   0.00  ;
         37         29         30     8.00     2.00   0.0050   3.60  ;
         38         24         31     4.00     4.00   0.0050   0.00  ;
         39         34         20    17.79     4.00   0.0050   0.00  ;
         41         36         19     7.33     4.00   0.0050   0.00  ;
         43         38         18     6.79     4.00   0.0050   0.00  ;
         45         40         21     6.63     4.00   0.0050   0.00  ;
         48         42         32     0.10     4.00   0.0050   0.00  ;

[COORDINATES]
;------------------------------------------------------
; Node         X-coord        Y-coord
; ID              [ft]      [ft]
;------------------------------------------------------
            1        400.462          -0.308
            2        475.231         125.231
            3        425.385         125.231
            4        374.615         125.231
            5        324.769         125.231
           14        475.231         175.077
           15        425.385         176.000
           16        373.692         176.000
           17        324.769         176.923
           18        454.000         225.846
           19        405.077         225.846
           20        352.462         224.923
           21        303.538         225.846
           22         50.615         226.769
           23         85.692         330.154
           24         32.154         525.846
           26         -1.802         226.169
           27       -373.939         451.143
           28       -409.461         432.536
           29       -409.461         116.220
           30       -409.461          51.942
           31         38.795         499.352
           32        213.732         531.266
           33        358.783         210.356
           34        358.385         211.273
           35        410.690         212.068
           36        410.313         212.994
           37        461.010         209.084
           38        460.624         210.006
           39        310.891         208.903
           40        310.493         209.821
           41        152.619         516.003
           42        200.040         522.620

[VERTICES]
;-----------------------------------------------------------------
;        LINK          X        Y
;-----------------------------------------------------------------

[VALVES]
;------------------------------------------------------------------
;           Head      Tail       Diam    Type   Setting  (Losscoef)
; ID        Node      Node       [in]
;------------------------------------------------------------------
         40          33          34   1.50000   FCV     6.500   5.50000  ;
         42          35          36   1.50000   FCV     6.500   5.50000  ;
         44          37          38   1.50000   FCV     6.500   5.50000  ;
         46          39          40   1.50000   FCV    99.000   5.50000  ;
         47          41          42   4.00000   FCV    45.000   0.00000  ;

[PUMPS]
;------------------------------------------------------------------
;           Head      Tail       Properties
; ID        Node      Node                              
;------------------------------------------------------------------
        29          1          2 HEAD PQH_29   ;8 GPM pump
        28         41         24 POWER   5.00   ;Transfer pump
        30          1          3 HEAD PQH_30   ;6.5 GPM pump
        31          1          4 HEAD PQH_31   ;6.5 GPM pump
        32          1          5 HEAD PQH_32   ;6.5 GPM pump


[DEMANDS]
;------------------------------------------------------------------
; NodeID            Demand   Pattern 
;------------------------------------------------------------------
             30    27.500


[STATUS]
;------------------------------------------------------------------
; link              Setting
; ID
;------------------------------------------------------------------
        28  CLOSED


[CURVES]
;------------------------------------------------------------------
; Pump Curves                                                      
; ID        Flow      Head                                         
;------------------------------------------------------------------
         PQH_29   0.00 410.00
         PQH_29   8.00 235.00
         PQH_29  10.00 130.00
         PQH_30   0.00 410.00
         PQH_30   6.50 295.00
         PQH_30  10.00 130.00
         PQH_31   0.00 410.00
         PQH_31   6.50 295.00
         PQH_31  10.00 130.00
         PQH_32   0.00 410.00
         PQH_32   6.50 295.00
         PQH_32  10.00 130.00

[RULES]
;------------------------------------------------------------------



[ENERGY]
;------------------------------------------------------------------
GLOBAL PRICE      0.000
GLOBAL EFFIC     75.000
DEMAND CHARGE      0.000



[REPORT]
;------------------------------------------------------

[OPTIONS]
;------------------------------------------------------
UNITS GPM
HEADLOSS D-W
SPECIFIC GRAVITY  1.000
VISCOSITY 0.00001100
TRIALS   40
ACCURACY 0.00100
SEGMENTS  100
UNBALANCED CONTINUE 
EMITTER EXPONENT 0.5


[END]
